
#======================================================================
# CRYSTAL DATA
#----------------------------------------------------------------------
data_VESTA_phase_1

_chemical_name_common                  'H2 O'
_cell_length_a                         0.185000
_cell_length_b                         0.185000
_cell_length_c                         0.185000
_cell_angle_alpha                      90.000000
_cell_angle_beta                       90.000000
_cell_angle_gamma                      90.000000
_cell_volume                           1.000000
_space_group_name_H-M_alt              'Custom'
_space_group_IT_number                 1

loop_
_space_group_symop_operation_xyz
   'x, y, z'

loop_
   _atom_site_label
   _atom_site_occupancy
   _atom_site_fract_x
   _atom_site_fract_y
   _atom_site_fract_z
   _atom_site_adp_type
   _atom_site_U_iso_or_equiv
   _atom_site_type_symbol
   O1         1.0     0.217116     0.500000     0.297297    Uiso  ? O
   H1         1.0     0.217116     0.500000     0.900000    Uiso  ? H
   H2         1.0     0.782884     0.500000     0.100000    Uiso  ? H
